pcf
* control data
RSTFLE F
PESTMODE ESTIMATION
* parameter groups
hk_value relative 0.01 0.0 switch 2.0 parabolic
* parameter data
hk_value log 0.1 10.0 1.0 adjustable
* observation groups
heads
* observation data
obs1 10.8 1.0
obs2 11.3 1.0
* model command line
mf2005.exe
* model input/output
hk.tpl hk
head.ins model.hds
