# CHD package for MODFLOW-2005 generated by Flopy 3.8.0
        20
        20         0 # stress period 1
         1         1         1            10.0            10.0
         1        10         1            11.0            11.0
         1         1         2            10.0            10.0
         1        10         2            11.0            11.0
         1         1         3            10.0            10.0
         1        10         3            11.0            11.0
         1         1         4            10.0            10.0
         1        10         4            11.0            11.0
         1         1         5            10.0            10.0
         1        10         5            11.0            11.0
         1         1         6            10.0            10.0
         1        10         6            11.0            11.0
         1         1         7            10.0            10.0
         1        10         7            11.0            11.0
         1         1         8            10.0            10.0
         1        10         8            11.0            11.0
         1         1         9            10.0            10.0
         1        10         9            11.0            11.0
         1         1        10            10.0            10.0
         1        10        10            11.0            11.0
