# Name file for MODFLOW-2005, generated by Flopy version 3.8.0.
#xll:0.0; yll:0.0; rotation:0.0; units:meters; lenuni:2; start_datetime:1-1-1970
LIST               2  simple_model.list
DIS               11  simple_model.dis
BAS6              13  simple_model.bas
CHD               24  simple_model.chd
LPF               15  simple_model.lpf
PCG               27  simple_model.pcg
OC                14  simple_model.oc
HOB               39  simple_model.hob
DATA(BINARY)      51  simple_model.hds REPLACE
DATA               1  simple_model.hob.out
