# HOB package for MODFLOW-2005 generated by Flopy 3.8.0
         2         0         0         1     -9999
         1
obs1                    1          3          3          1                  1.0     0.0000     0.0000    10.8000   # DATASET 3 - Observation 1
obs2                    1          8          8          1                  1.0     0.0000     0.0000    11.3000   # DATASET 3 - Observation 2
