# File generated by Flopy version 3.4.3 on 10/16/2023 at 14:30:01.
BEGIN griddata
  strt
    CONSTANT     200.00000000
END griddata

