# File generated by Flopy version 3.4.3 on 10/16/2023 at 14:30:01.
BEGIN options
  COMPLEXITY  simple
END options

