# File generated by Flopy version 3.4.3 on 10/16/2023 at 14:30:01.
BEGIN options
END options

BEGIN dimensions
  MAXBOUND  36
END dimensions

BEGIN period  1
  1 18 18     350.00000000  1.00000000E-07
  1 17 18     350.00000000  1.00000000E-07
  1 16 18     350.00000000  1.00000000E-07
  1 15 18     350.00000000  1.00000000E-07
  1 14 18     350.00000000  1.00000000E-07
  1 13 18     350.00000000  1.00000000E-07
  1 12 18     350.00000000  1.00000000E-07
  1 11 18     350.00000000  1.00000000E-07
  1 10 18     350.00000000  1.00000000E-07
  1 9 18     350.00000000  1.00000000E-07
  1 8 18     350.00000000  1.00000000E-07
  1 7 18     350.00000000  1.00000000E-07
  1 6 18     350.00000000  1.00000000E-07
  1 5 18     350.00000000  1.00000000E-07
  1 4 18     350.00000000  1.00000000E-07
  1 3 18     350.00000000  1.00000000E-07
  1 2 18     350.00000000  1.00000000E-07
  1 1 18     350.00000000  1.00000000E-07
  3 18 18     350.00000000  1.00000000E-07
  3 17 18     350.00000000  1.00000000E-07
  3 16 18     350.00000000  1.00000000E-07
  3 15 18     350.00000000  1.00000000E-07
  3 14 18     350.00000000  1.00000000E-07
  3 13 18     350.00000000  1.00000000E-07
  3 12 18     350.00000000  1.00000000E-07
  3 11 18     350.00000000  1.00000000E-07
  3 10 18     350.00000000  1.00000000E-07
  3 9 18     350.00000000  1.00000000E-07
  3 8 18     350.00000000  1.00000000E-07
  3 7 18     350.00000000  1.00000000E-07
  3 6 18     350.00000000  1.00000000E-07
  3 5 18     350.00000000  1.00000000E-07
  3 4 18     350.00000000  1.00000000E-07
  3 3 18     350.00000000  1.00000000E-07
  3 2 18     350.00000000  1.00000000E-07
  3 1 18     350.00000000  1.00000000E-07
END period  1

