# File generated by Flopy version 3.4.3 on 10/17/2023 at 03:50:46.
BEGIN options
  COMPLEXITY  simple
END options

