# File generated by Flopy version 3.4.3 on 10/17/2023 at 05:22:38.
BEGIN options
  BUDGET  FILEOUT  hill.cbb
  HEAD  FILEOUT  hill.hds
  HEAD  PRINT_FORMAT  COLUMNS  10  WIDTH  15  DIGITS  6  GENERAL
END options

BEGIN period  1
  SAVE  HEAD  ALL
  SAVE  BUDGET  ALL
  PRINT  HEAD  ALL
  PRINT  BUDGET  ALL
END period  1

