# File generated by Flopy version 3.4.3 on 10/17/2023 at 05:22:38.
BEGIN options
  COMPLEXITY  simple
END options

