# File generated by Flopy version 3.4.3 on 10/17/2023 at 03:50:46.
BEGIN options
  BOUNDNAMES
  SAVE_FLOWS
END options

BEGIN dimensions
  MAXBOUND  18
END dimensions

BEGIN period  1
  1 1 1     100.00000000     100.00000000      90.00000000
  1 1 2     100.00000000     100.00000000      90.00000000
  1 1 3     100.00000000     100.00000000      90.00000000
  1 1 4     100.00000000     100.00000000      90.00000000
  1 1 5     100.00000000     100.00000000      90.00000000
  1 1 6     100.00000000     100.00000000      90.00000000
  1 1 7     100.00000000     100.00000000      90.00000000
  1 1 8     100.00000000     100.00000000      90.00000000
  1 1 9     100.00000000     100.00000000      90.00000000
  1 1 10     100.00000000     100.00000000      90.00000000
  1 1 11     100.00000000     100.00000000      90.00000000
  1 1 12     100.00000000     100.00000000      90.00000000
  1 1 13     100.00000000     100.00000000      90.00000000
  1 1 14     100.00000000     100.00000000      90.00000000
  1 1 15     100.00000000     100.00000000      90.00000000
  1 1 16     100.00000000     100.00000000      90.00000000
  1 1 17     100.00000000     100.00000000      90.00000000
  1 1 18     100.00000000     100.00000000      90.00000000
END period  1

