# File generated by Flopy version 3.4.3 on 10/17/2023 at 05:22:38.
BEGIN griddata
  strt
    CONSTANT     200.00000000
END griddata

