# File generated by Flopy version 3.4.3 on 10/16/2023 at 14:30:01.
BEGIN options
  BOUNDNAMES
  SAVE_FLOWS
END options

BEGIN dimensions
  MAXBOUND  18
END dimensions

BEGIN period  1
  1 18 1     100.00000000     100.00000000      90.00000000  zn_0
  1 17 1     100.00000000     100.00000000      90.00000000  zn_0
  1 16 1     100.00000000     100.00000000      90.00000000  zn_0
  1 15 1     100.00000000     100.00000000      90.00000000  zn_0
  1 14 1     100.00000000     100.00000000      90.00000000  zn_0
  1 13 1     100.00000000     100.00000000      90.00000000  zn_0
  1 12 1     100.00000000     100.00000000      90.00000000  zn_0
  1 11 1     100.00000000     100.00000000      90.00000000  zn_0
  1 10 1     100.00000000     100.00000000      90.00000000  zn_0
  1 9 1     100.00000000     100.00000000      90.00000000  zn_0
  1 8 1     100.00000000     100.00000000      90.00000000  zn_0
  1 7 1     100.00000000     100.00000000      90.00000000  zn_0
  1 6 1     100.00000000     100.00000000      90.00000000  zn_0
  1 5 1     100.00000000     100.00000000      90.00000000  zn_0
  1 4 1     100.00000000     100.00000000      90.00000000  zn_0
  1 3 1     100.00000000     100.00000000      90.00000000  zn_0
  1 2 1     100.00000000     100.00000000      90.00000000  zn_0
  1 1 1     100.00000000     100.00000000      90.00000000  zn_0
END period  1

