# File generated by Flopy version 3.4.3 on 10/17/2023 at 03:50:46.
BEGIN options
  SAVE_FLOWS
END options

BEGIN griddata
  icelltype  LAYERED
    CONSTANT  1
    CONSTANT  0
    CONSTANT  0
  k  LAYERED
    CONSTANT  3.00000000E-04
    CONSTANT  1.00000000E-07
    INTERNAL  FACTOR  1.0
      4.00000000E-05  4.00000000E-05  8.00000000E-05  8.00000000E-05  1.20000000E-04  1.20000000E-04  1.60000000E-04  1.60000000E-04  2.00000000E-04  2.00000000E-04  2.40000000E-04  2.40000000E-04  2.80000000E-04  2.80000000E-04  3.20000000E-04  3.20000000E-04  3.60000000E-04  3.60000000E-04
      4.00000000E-05  4.00000000E-05  8.00000000E-05  8.00000000E-05  1.20000000E-04  1.20000000E-04  1.60000000E-04  1.60000000E-04  2.00000000E-04  2.00000000E-04  2.40000000E-04  2.40000000E-04  2.80000000E-04  2.80000000E-04  3.20000000E-04  3.20000000E-04  3.60000000E-04  3.60000000E-04
      4.00000000E-05  4.00000000E-05  8.00000000E-05  8.00000000E-05  1.20000000E-04  1.20000000E-04  1.60000000E-04  1.60000000E-04  2.00000000E-04  2.00000000E-04  2.40000000E-04  2.40000000E-04  2.80000000E-04  2.80000000E-04  3.20000000E-04  3.20000000E-04  3.60000000E-04  3.60000000E-04
      4.00000000E-05  4.00000000E-05  8.00000000E-05  8.00000000E-05  1.20000000E-04  1.20000000E-04  1.60000000E-04  1.60000000E-04  2.00000000E-04  2.00000000E-04  2.40000000E-04  2.40000000E-04  2.80000000E-04  2.80000000E-04  3.20000000E-04  3.20000000E-04  3.60000000E-04  3.60000000E-04
      4.00000000E-05  4.00000000E-05  8.00000000E-05  8.00000000E-05  1.20000000E-04  1.20000000E-04  1.60000000E-04  1.60000000E-04  2.00000000E-04  2.00000000E-04  2.40000000E-04  2.40000000E-04  2.80000000E-04  2.80000000E-04  3.20000000E-04  3.20000000E-04  3.60000000E-04  3.60000000E-04
      4.00000000E-05  4.00000000E-05  8.00000000E-05  8.00000000E-05  1.20000000E-04  1.20000000E-04  1.60000000E-04  1.60000000E-04  2.00000000E-04  2.00000000E-04  2.40000000E-04  2.40000000E-04  2.80000000E-04  2.80000000E-04  3.20000000E-04  3.20000000E-04  3.60000000E-04  3.60000000E-04
      4.00000000E-05  4.00000000E-05  8.00000000E-05  8.00000000E-05  1.20000000E-04  1.20000000E-04  1.60000000E-04  1.60000000E-04  2.00000000E-04  2.00000000E-04  2.40000000E-04  2.40000000E-04  2.80000000E-04  2.80000000E-04  3.20000000E-04  3.20000000E-04  3.60000000E-04  3.60000000E-04
      4.00000000E-05  4.00000000E-05  8.00000000E-05  8.00000000E-05  1.20000000E-04  1.20000000E-04  1.60000000E-04  1.60000000E-04  2.00000000E-04  2.00000000E-04  2.40000000E-04  2.40000000E-04  2.80000000E-04  2.80000000E-04  3.20000000E-04  3.20000000E-04  3.60000000E-04  3.60000000E-04
      4.00000000E-05  4.00000000E-05  8.00000000E-05  8.00000000E-05  1.20000000E-04  1.20000000E-04  1.60000000E-04  1.60000000E-04  2.00000000E-04  2.00000000E-04  2.40000000E-04  2.40000000E-04  2.80000000E-04  2.80000000E-04  3.20000000E-04  3.20000000E-04  3.60000000E-04  3.60000000E-04
      4.00000000E-05  4.00000000E-05  8.00000000E-05  8.00000000E-05  1.20000000E-04  1.20000000E-04  1.60000000E-04  1.60000000E-04  2.00000000E-04  2.00000000E-04  2.40000000E-04  2.40000000E-04  2.80000000E-04  2.80000000E-04  3.20000000E-04  3.20000000E-04  3.60000000E-04  3.60000000E-04
      4.00000000E-05  4.00000000E-05  8.00000000E-05  8.00000000E-05  1.20000000E-04  1.20000000E-04  1.60000000E-04  1.60000000E-04  2.00000000E-04  2.00000000E-04  2.40000000E-04  2.40000000E-04  2.80000000E-04  2.80000000E-04  3.20000000E-04  3.20000000E-04  3.60000000E-04  3.60000000E-04
      4.00000000E-05  4.00000000E-05  8.00000000E-05  8.00000000E-05  1.20000000E-04  1.20000000E-04  1.60000000E-04  1.60000000E-04  2.00000000E-04  2.00000000E-04  2.40000000E-04  2.40000000E-04  2.80000000E-04  2.80000000E-04  3.20000000E-04  3.20000000E-04  3.60000000E-04  3.60000000E-04
      4.00000000E-05  4.00000000E-05  8.00000000E-05  8.00000000E-05  1.20000000E-04  1.20000000E-04  1.60000000E-04  1.60000000E-04  2.00000000E-04  2.00000000E-04  2.40000000E-04  2.40000000E-04  2.80000000E-04  2.80000000E-04  3.20000000E-04  3.20000000E-04  3.60000000E-04  3.60000000E-04
      4.00000000E-05  4.00000000E-05  8.00000000E-05  8.00000000E-05  1.20000000E-04  1.20000000E-04  1.60000000E-04  1.60000000E-04  2.00000000E-04  2.00000000E-04  2.40000000E-04  2.40000000E-04  2.80000000E-04  2.80000000E-04  3.20000000E-04  3.20000000E-04  3.60000000E-04  3.60000000E-04
      4.00000000E-05  4.00000000E-05  8.00000000E-05  8.00000000E-05  1.20000000E-04  1.20000000E-04  1.60000000E-04  1.60000000E-04  2.00000000E-04  2.00000000E-04  2.40000000E-04  2.40000000E-04  2.80000000E-04  2.80000000E-04  3.20000000E-04  3.20000000E-04  3.60000000E-04  3.60000000E-04
      4.00000000E-05  4.00000000E-05  8.00000000E-05  8.00000000E-05  1.20000000E-04  1.20000000E-04  1.60000000E-04  1.60000000E-04  2.00000000E-04  2.00000000E-04  2.40000000E-04  2.40000000E-04  2.80000000E-04  2.80000000E-04  3.20000000E-04  3.20000000E-04  3.60000000E-04  3.60000000E-04
      4.00000000E-05  4.00000000E-05  8.00000000E-05  8.00000000E-05  1.20000000E-04  1.20000000E-04  1.60000000E-04  1.60000000E-04  2.00000000E-04  2.00000000E-04  2.40000000E-04  2.40000000E-04  2.80000000E-04  2.80000000E-04  3.20000000E-04  3.20000000E-04  3.60000000E-04  3.60000000E-04
      4.00000000E-05  4.00000000E-05  8.00000000E-05  8.00000000E-05  1.20000000E-04  1.20000000E-04  1.60000000E-04  1.60000000E-04  2.00000000E-04  2.00000000E-04  2.40000000E-04  2.40000000E-04  2.80000000E-04  2.80000000E-04  3.20000000E-04  3.20000000E-04  3.60000000E-04  3.60000000E-04
END griddata

