# File generated by Flopy version 3.4.3 on 10/17/2023 at 03:50:46.
BEGIN options
END options

BEGIN dimensions
  MAXBOUND  360
END dimensions

BEGIN period  1
  1 8 1  1.99999987E-08
  1 9 1  1.99999987E-08
  1 7 1  1.99999987E-08
  1 9 2  1.99999987E-08
  1 8 2  1.99999987E-08
  1 7 2  1.99999987E-08
  1 9 3  1.99999987E-08
  1 8 3  1.99999987E-08
  1 7 3  1.99999987E-08
  1 9 4  1.99999987E-08
  1 1 1  1.99999987E-08
  1 2 1  1.99999987E-08
  1 3 1  1.99999987E-08
  1 1 2  1.99999987E-08
  1 2 2  1.99999987E-08
  1 3 2  1.99999987E-08
  1 3 3  1.99999987E-08
  1 2 3  1.99999987E-08
  1 1 3  1.99999987E-08
  1 3 4  1.99999987E-08
  1 6 1  1.99999987E-08
  1 4 1  1.99999987E-08
  1 5 1  1.99999987E-08
  1 6 2  1.99999987E-08
  1 4 2  1.99999987E-08
  1 5 2  1.99999987E-08
  1 6 3  1.99999987E-08
  1 5 3  1.99999987E-08
  1 4 3  1.99999987E-08
  1 5 4  1.99999987E-08
  1 2 4  1.99999987E-08
  1 1 4  1.99999987E-08
  1 2 5  1.99999987E-08
  1 1 5  1.99999987E-08
  1 3 5  1.99999987E-08
  1 1 6  1.99999987E-08
  1 2 6  1.99999987E-08
  1 3 6  1.99999987E-08
  1 1 7  1.99999987E-08
  1 2 7  1.99999987E-08
  1 8 4  1.99999987E-08
  1 7 4  1.99999987E-08
  1 7 5  1.99999987E-08
  1 8 5  1.99999987E-08
  1 9 5  1.99999987E-08
  1 7 6  1.99999987E-08
  1 8 6  1.99999987E-08
  1 9 6  1.99999987E-08
  1 7 7  1.99999987E-08
  1 8 7  1.99999987E-08
  1 6 4  1.99999987E-08
  1 4 4  1.99999987E-08
  1 6 5  1.99999987E-08
  1 5 5  1.99999987E-08
  1 4 5  1.99999987E-08
  1 4 6  1.99999987E-08
  1 5 6  1.99999987E-08
  1 6 6  1.99999987E-08
  1 4 7  1.99999987E-08
  1 5 7  1.99999987E-08
  1 3 7  1.99999987E-08
  1 2 8  1.99999987E-08
  1 3 8  1.99999987E-08
  1 1 8  1.99999987E-08
  1 2 9  1.99999987E-08
  1 3 9  1.99999987E-08
  1 1 9  1.99999987E-08
  1 3 10  1.99999987E-08
  1 1 10  1.99999987E-08
  1 2 10  1.99999987E-08
  1 9 7  1.99999987E-08
  1 8 8  1.99999987E-08
  1 7 8  1.99999987E-08
  1 9 8  1.99999987E-08
  1 8 9  1.99999987E-08
  1 9 9  1.99999987E-08
  1 7 9  1.99999987E-08
  1 8 10  1.99999987E-08
  1 9 10  1.99999987E-08
  1 7 10  1.99999987E-08
  1 6 7  1.99999987E-08
  1 5 8  1.99999987E-08
  1 6 8  1.99999987E-08
  1 4 8  1.99999987E-08
  1 6 9  1.99999987E-08
  1 5 9  1.99999987E-08
  1 4 9  1.99999987E-08
  1 4 10  1.99999987E-08
  1 5 10  1.99999987E-08
  1 6 10  1.99999987E-08
  1 4 11  1.99999987E-08
  1 6 11  1.99999987E-08
  1 5 11  1.99999987E-08
  1 4 12  1.99999987E-08
  1 6 12  1.99999987E-08
  1 5 12  1.99999987E-08
  1 4 13  1.99999987E-08
  1 6 13  1.99999987E-08
  1 5 13  1.99999987E-08
  1 6 14  1.99999987E-08
  1 10 1  1.99999987E-08
  1 10 2  1.99999987E-08
  1 10 3  1.99999987E-08
  1 10 4  1.99999987E-08
  1 10 5  1.99999987E-08
  1 10 6  1.99999987E-08
  1 10 7  1.99999987E-08
  1 10 8  1.99999987E-08
  1 10 9  1.99999987E-08
  1 10 10  1.99999987E-08
  1 10 11  1.99999987E-08
  1 10 12  1.99999987E-08
  1 10 13  1.99999987E-08
  1 10 14  1.99999987E-08
  1 2 11  1.99999987E-08
  1 1 11  1.99999987E-08
  1 3 11  1.99999987E-08
  1 1 12  1.99999987E-08
  1 3 12  1.99999987E-08
  1 2 12  1.99999987E-08
  1 1 13  1.99999987E-08
  1 3 13  1.99999987E-08
  1 2 13  1.99999987E-08
  1 1 14  1.99999987E-08
  1 9 11  1.99999987E-08
  1 7 11  1.99999987E-08
  1 8 11  1.99999987E-08
  1 7 12  1.99999987E-08
  1 9 12  1.99999987E-08
  1 8 12  1.99999987E-08
  1 8 13  1.99999987E-08
  1 9 13  1.99999987E-08
  1 7 13  1.99999987E-08
  1 9 14  1.99999987E-08
  1 4 14  1.99999987E-08
  1 5 14  1.99999987E-08
  1 6 15  1.99999987E-08
  1 5 15  1.99999987E-08
  1 4 15  1.99999987E-08
  1 5 16  1.99999987E-08
  1 6 16  1.99999987E-08
  1 4 16  1.99999987E-08
  1 4 17  1.99999987E-08
  1 6 17  1.99999987E-08
  1 3 14  1.99999987E-08
  1 2 14  1.99999987E-08
  1 3 15  1.99999987E-08
  1 1 15  1.99999987E-08
  1 2 15  1.99999987E-08
  1 3 16  1.99999987E-08
  1 1 16  1.99999987E-08
  1 2 16  1.99999987E-08
  1 1 17  1.99999987E-08
  1 2 17  1.99999987E-08
  1 8 14  1.99999987E-08
  1 7 14  1.99999987E-08
  1 7 15  1.99999987E-08
  1 9 15  1.99999987E-08
  1 8 15  1.99999987E-08
  1 9 16  1.99999987E-08
  1 7 16  1.99999987E-08
  1 8 16  1.99999987E-08
  1 8 17  1.99999987E-08
  1 7 17  1.99999987E-08
  1 5 17  1.99999987E-08
  1 6 18  1.99999987E-08
  1 4 18  1.99999987E-08
  1 5 18  1.99999987E-08
  1 3 17  1.99999987E-08
  1 3 18  1.99999987E-08
  1 2 18  1.99999987E-08
  1 1 18  1.99999987E-08
  1 9 17  1.99999987E-08
  1 9 18  1.99999987E-08
  1 8 18  1.99999987E-08
  1 7 18  1.99999987E-08
  1 10 15  1.99999987E-08
  1 10 16  1.99999987E-08
  1 10 17  1.99999987E-08
  1 10 18  1.99999987E-08
  1 9 1  9.99999937E-09
  1 9 2  9.99999937E-09
  1 9 3  9.99999937E-09
  1 9 4  9.99999937E-09
  1 9 5  9.99999937E-09
  1 9 6  9.99999937E-09
  1 9 7  9.99999937E-09
  1 9 8  9.99999937E-09
  1 9 9  9.99999937E-09
  1 9 10  9.99999937E-09
  1 11 1  9.99999937E-09
  1 10 1  9.99999937E-09
  1 12 1  9.99999937E-09
  1 11 2  9.99999937E-09
  1 12 2  9.99999937E-09
  1 10 2  9.99999937E-09
  1 11 3  9.99999937E-09
  1 10 3  9.99999937E-09
  1 12 3  9.99999937E-09
  1 10 4  9.99999937E-09
  1 15 1  9.99999937E-09
  1 14 1  9.99999937E-09
  1 13 1  9.99999937E-09
  1 14 2  9.99999937E-09
  1 15 2  9.99999937E-09
  1 13 2  9.99999937E-09
  1 14 3  9.99999937E-09
  1 13 3  9.99999937E-09
  1 15 3  9.99999937E-09
  1 15 4  9.99999937E-09
  1 18 1  9.99999937E-09
  1 17 1  9.99999937E-09
  1 16 1  9.99999937E-09
  1 17 2  9.99999937E-09
  1 18 2  9.99999937E-09
  1 16 2  9.99999937E-09
  1 18 3  9.99999937E-09
  1 17 3  9.99999937E-09
  1 16 3  9.99999937E-09
  1 18 4  9.99999937E-09
  1 11 4  9.99999937E-09
  1 12 4  9.99999937E-09
  1 10 5  9.99999937E-09
  1 11 5  9.99999937E-09
  1 12 5  9.99999937E-09
  1 10 6  9.99999937E-09
  1 11 6  9.99999937E-09
  1 12 6  9.99999937E-09
  1 10 7  9.99999937E-09
  1 11 7  9.99999937E-09
  1 14 4  9.99999937E-09
  1 13 4  9.99999937E-09
  1 13 5  9.99999937E-09
  1 14 5  9.99999937E-09
  1 15 5  9.99999937E-09
  1 13 6  9.99999937E-09
  1 14 6  9.99999937E-09
  1 15 6  9.99999937E-09
  1 13 7  9.99999937E-09
  1 14 7  9.99999937E-09
  1 17 4  9.99999937E-09
  1 16 4  9.99999937E-09
  1 16 5  9.99999937E-09
  1 17 5  9.99999937E-09
  1 18 5  9.99999937E-09
  1 16 6  9.99999937E-09
  1 17 6  9.99999937E-09
  1 18 6  9.99999937E-09
  1 16 7  9.99999937E-09
  1 17 7  9.99999937E-09
  1 12 7  9.99999937E-09
  1 10 8  9.99999937E-09
  1 11 8  9.99999937E-09
  1 12 8  9.99999937E-09
  1 12 9  9.99999937E-09
  1 11 9  9.99999937E-09
  1 10 9  9.99999937E-09
  1 10 10  9.99999937E-09
  1 12 10  9.99999937E-09
  1 11 10  9.99999937E-09
  1 15 7  9.99999937E-09
  1 15 8  9.99999937E-09
  1 14 8  9.99999937E-09
  1 13 8  9.99999937E-09
  1 14 9  9.99999937E-09
  1 15 9  9.99999937E-09
  1 13 9  9.99999937E-09
  1 13 10  9.99999937E-09
  1 14 10  9.99999937E-09
  1 15 10  9.99999937E-09
  1 18 7  9.99999937E-09
  1 18 8  9.99999937E-09
  1 17 8  9.99999937E-09
  1 16 8  9.99999937E-09
  1 18 9  9.99999937E-09
  1 17 9  9.99999937E-09
  1 16 9  9.99999937E-09
  1 16 10  9.99999937E-09
  1 17 10  9.99999937E-09
  1 18 10  9.99999937E-09
  1 10 11  9.99999937E-09
  1 11 11  9.99999937E-09
  1 12 11  9.99999937E-09
  1 10 12  9.99999937E-09
  1 12 12  9.99999937E-09
  1 11 12  9.99999937E-09
  1 10 13  9.99999937E-09
  1 11 13  9.99999937E-09
  1 12 13  9.99999937E-09
  1 10 14  9.99999937E-09
  1 9 11  9.99999937E-09
  1 9 12  9.99999937E-09
  1 9 13  9.99999937E-09
  1 9 14  9.99999937E-09
  1 9 15  9.99999937E-09
  1 9 16  9.99999937E-09
  1 9 17  9.99999937E-09
  1 9 18  9.99999937E-09
  1 13 11  9.99999937E-09
  1 14 11  9.99999937E-09
  1 15 11  9.99999937E-09
  1 13 12  9.99999937E-09
  1 15 12  9.99999937E-09
  1 14 12  9.99999937E-09
  1 13 13  9.99999937E-09
  1 15 13  9.99999937E-09
  1 14 13  9.99999937E-09
  1 13 14  9.99999937E-09
  1 17 11  9.99999937E-09
  1 18 11  9.99999937E-09
  1 16 11  9.99999937E-09
  1 17 12  9.99999937E-09
  1 16 12  9.99999937E-09
  1 18 12  9.99999937E-09
  1 17 13  9.99999937E-09
  1 16 13  9.99999937E-09
  1 18 13  9.99999937E-09
  1 16 14  9.99999937E-09
  1 12 14  9.99999937E-09
  1 11 14  9.99999937E-09
  1 11 15  9.99999937E-09
  1 10 15  9.99999937E-09
  1 12 15  9.99999937E-09
  1 11 16  9.99999937E-09
  1 10 16  9.99999937E-09
  1 12 16  9.99999937E-09
  1 10 17  9.99999937E-09
  1 12 17  9.99999937E-09
  1 15 14  9.99999937E-09
  1 14 14  9.99999937E-09
  1 15 15  9.99999937E-09
  1 14 15  9.99999937E-09
  1 13 15  9.99999937E-09
  1 15 16  9.99999937E-09
  1 13 16  9.99999937E-09
  1 14 16  9.99999937E-09
  1 13 17  9.99999937E-09
  1 15 17  9.99999937E-09
  1 18 14  9.99999937E-09
  1 17 14  9.99999937E-09
  1 18 15  9.99999937E-09
  1 17 15  9.99999937E-09
  1 16 15  9.99999937E-09
  1 18 16  9.99999937E-09
  1 16 16  9.99999937E-09
  1 17 16  9.99999937E-09
  1 16 17  9.99999937E-09
  1 18 17  9.99999937E-09
  1 17 17  9.99999937E-09
  1 16 18  9.99999937E-09
  1 18 18  9.99999937E-09
  1 17 18  9.99999937E-09
  1 14 17  9.99999937E-09
  1 15 18  9.99999937E-09
  1 14 18  9.99999937E-09
  1 13 18  9.99999937E-09
  1 11 17  9.99999937E-09
  1 11 18  9.99999937E-09
  1 10 18  9.99999937E-09
  1 12 18  9.99999937E-09
END period  1

