# File generated by Flopy version 3.4.3 on 10/17/2023 at 03:50:46.
BEGIN options
END options

BEGIN packages
  DIS6  hill.dis  dis
  IC6  hill.ic  ic
  NPF6  hill.npf  npf
  RCH6  hill.rch  rch_0
  RIV6  hill.riv  riv_0
  GHB6  hill.ghb  ghb_0
  OC6  hill.oc  oc
END packages

