# File generated by Flopy version 3.4.3 on 10/17/2023 at 05:22:38.
BEGIN options
  TIME_UNITS  seconds
END options

BEGIN dimensions
  NPER  2
END dimensions

BEGIN perioddata
       1.00000000  1       1.00000000
      30.00000000  6       1.00000000
END perioddata

