# File generated by Flopy version 3.4.3 on 10/17/2023 at 03:50:46.
BEGIN options
END options

BEGIN dimensions
  MAXBOUND  36
END dimensions

BEGIN period  1
  1 18 1     350.00000000  1.00000000E-07
  1 18 2     350.00000000  1.00000000E-07
  1 18 3     350.00000000  1.00000000E-07
  1 18 4     350.00000000  1.00000000E-07
  1 18 5     350.00000000  1.00000000E-07
  1 18 6     350.00000000  1.00000000E-07
  1 18 7     350.00000000  1.00000000E-07
  1 18 8     350.00000000  1.00000000E-07
  1 18 9     350.00000000  1.00000000E-07
  1 18 10     350.00000000  1.00000000E-07
  1 18 11     350.00000000  1.00000000E-07
  1 18 12     350.00000000  1.00000000E-07
  1 18 13     350.00000000  1.00000000E-07
  1 18 14     350.00000000  1.00000000E-07
  1 18 15     350.00000000  1.00000000E-07
  1 18 16     350.00000000  1.00000000E-07
  1 18 17     350.00000000  1.00000000E-07
  1 18 18     350.00000000  1.00000000E-07
  3 18 1     350.00000000  1.00000000E-07
  3 18 2     350.00000000  1.00000000E-07
  3 18 3     350.00000000  1.00000000E-07
  3 18 4     350.00000000  1.00000000E-07
  3 18 5     350.00000000  1.00000000E-07
  3 18 6     350.00000000  1.00000000E-07
  3 18 7     350.00000000  1.00000000E-07
  3 18 8     350.00000000  1.00000000E-07
  3 18 9     350.00000000  1.00000000E-07
  3 18 10     350.00000000  1.00000000E-07
  3 18 11     350.00000000  1.00000000E-07
  3 18 12     350.00000000  1.00000000E-07
  3 18 13     350.00000000  1.00000000E-07
  3 18 14     350.00000000  1.00000000E-07
  3 18 15     350.00000000  1.00000000E-07
  3 18 16     350.00000000  1.00000000E-07
  3 18 17     350.00000000  1.00000000E-07
  3 18 18     350.00000000  1.00000000E-07
END period  1

