# File generated by Flopy version 3.4.3 on 10/16/2023 at 14:30:01.
BEGIN options
END options

BEGIN timing
  TDIS6  hill.tdis
END timing

BEGIN models
  gwf6  hill.nam  hill
END models

BEGIN exchanges
END exchanges

BEGIN solutiongroup  1
  ims6  hill.ims  hill
END solutiongroup  1

