# File generated by Flopy version 3.6.0 on 02/21/2024 at 19:49:06.
BEGIN options
END options

BEGIN timing
  TDIS6  sim.tdis
END timing

BEGIN models
  gwf6  simple.nam  simple
END models

BEGIN exchanges
END exchanges

BEGIN solutiongroup  1
  ims6  sim.ims  simple
END solutiongroup  1

