# File generated by Flopy version 3.6.0 on 02/21/2024 at 19:49:06.
BEGIN options
END options

BEGIN packages
  DIS6  simple.dis  dis
  NPF6  simple.npf  npf
  RCH6  simple.rcha  rcha_0
  IC6  simple.ic  ic
  CHD6  simple.chd  chd_0
  RIV6  simple.riv  riv_0
  OC6  simple.oc  oc
END packages

