# File generated by Flopy version 3.6.0 on 02/21/2024 at 19:49:06.
BEGIN options
  BUDGET  FILEOUT  simple.cbb
  HEAD  FILEOUT  simple.hds
  HEAD  PRINT_FORMAT  COLUMNS  10  WIDTH  15  DIGITS  6  GENERAL
END options

BEGIN period  1
  SAVE  HEAD  ALL
  SAVE  BUDGET  ALL
  PRINT  HEAD  ALL
  PRINT  BUDGET  ALL
END period  1

