# File generated by Flopy version 3.6.0 on 02/21/2024 at 19:49:06.
BEGIN options
  LENGTH_UNITS  meters
END options

BEGIN dimensions
  NLAY  1
  NROW  50
  NCOL  30
END dimensions

BEGIN griddata
  delr
    CONSTANT       5.00000000
  delc
    CONSTANT       5.00000000
  top
    CONSTANT      10.00000000
  botm
    CONSTANT       0.00000000
END griddata

