# File generated by Flopy version 3.6.0 on 02/21/2024 at 19:49:06.
BEGIN options
END options

BEGIN dimensions
  MAXBOUND  50
END dimensions

BEGIN period  1
  1 1 30 5 1.00000000E-02 4
  1 2 30 5 1.00000000E-02 4
  1 3 30 5 1.00000000E-02 4
  1 4 30 5 1.00000000E-02 4
  1 5 30 5 1.00000000E-02 4
  1 6 30 5 1.00000000E-02 4
  1 7 30 5 1.00000000E-02 4
  1 8 30 5 1.00000000E-02 4
  1 9 30 5 1.00000000E-02 4
  1 10 30 5 1.00000000E-02 4
  1 11 30 5 1.00000000E-02 4
  1 12 30 5 1.00000000E-02 4
  1 13 30 5 1.00000000E-02 4
  1 14 30 5 1.00000000E-02 4
  1 15 30 5 1.00000000E-02 4
  1 16 30 5 1.00000000E-02 4
  1 17 30 5 1.00000000E-02 4
  1 18 30 5 1.00000000E-02 4
  1 19 30 5 1.00000000E-02 4
  1 20 30 5 1.00000000E-02 4
  1 21 30 5 1.00000000E-02 4
  1 22 30 5 1.00000000E-02 4
  1 23 30 5 1.00000000E-02 4
  1 24 30 5 1.00000000E-02 4
  1 25 30 5 1.00000000E-02 4
  1 26 30 5 1.00000000E-02 4
  1 27 30 5 1.00000000E-02 4
  1 28 30 5 1.00000000E-02 4
  1 29 30 5 1.00000000E-02 4
  1 30 30 5 1.00000000E-02 4
  1 31 30 5 1.00000000E-02 4
  1 32 30 5 1.00000000E-02 4
  1 33 30 5 1.00000000E-02 4
  1 34 30 5 1.00000000E-02 4
  1 35 30 5 1.00000000E-02 4
  1 36 30 5 1.00000000E-02 4
  1 37 30 5 1.00000000E-02 4
  1 38 30 5 1.00000000E-02 4
  1 39 30 5 1.00000000E-02 4
  1 40 30 5 1.00000000E-02 4
  1 41 30 5 1.00000000E-02 4
  1 42 30 5 1.00000000E-02 4
  1 43 30 5 1.00000000E-02 4
  1 44 30 5 1.00000000E-02 4
  1 45 30 5 1.00000000E-02 4
  1 46 30 5 1.00000000E-02 4
  1 47 30 5 1.00000000E-02 4
  1 48 30 5 1.00000000E-02 4
  1 49 30 5 1.00000000E-02 4
  1 50 30 5 1.00000000E-02 4
END period  1

