# File generated by Flopy version 3.6.0 on 02/21/2024 at 19:49:06.
BEGIN options
  COMPLEXITY  simple
END options

BEGIN nonlinear
  OUTER_DVCLOSE  1.00000000E-04
END nonlinear

BEGIN linear
  INNER_DVCLOSE  1.00000000E-05
  LINEAR_ACCELERATION  bicgstab
END linear

