# File generated by Flopy version 3.6.0 on 02/21/2024 at 19:49:06.
BEGIN options
  TIME_UNITS  days
END options

BEGIN dimensions
  NPER  1
END dimensions

BEGIN perioddata
       1.00000000  1       1.00000000
END perioddata

