# File generated by Flopy version 3.6.0 on 02/21/2024 at 19:49:06.
BEGIN options
  READASARRAYS
END options

BEGIN period  1
  recharge
    CONSTANT  7.00000000E-04
END period  1

