# File generated by Flopy version 3.6.0 on 02/21/2024 at 19:49:06.
BEGIN griddata
  strt
    CONSTANT      10.00000000
END griddata

