# File generated by Flopy version 3.6.0 on 02/20/2024 at 15:40:16.
BEGIN options
END options

BEGIN dimensions
  MAXBOUND  50
END dimensions

BEGIN period  1
  1 1 30 9 10 8
  1 2 30 9 10 8
  1 3 30 9 10 8
  1 4 30 9 10 8
  1 5 30 9 10 8
  1 6 30 9 10 8
  1 7 30 9 10 8
  1 8 30 9 10 8
  1 9 30 9 10 8
  1 10 30 9 10 8
  1 11 30 9 10 8
  1 12 30 9 10 8
  1 13 30 9 10 8
  1 14 30 9 10 8
  1 15 30 9 10 8
  1 16 30 9 10 8
  1 17 30 9 10 8
  1 18 30 9 10 8
  1 19 30 9 10 8
  1 20 30 9 10 8
  1 21 30 9 10 8
  1 22 30 9 10 8
  1 23 30 9 10 8
  1 24 30 9 10 8
  1 25 30 9 10 8
  1 26 30 9 10 8
  1 27 30 9 10 8
  1 28 30 9 10 8
  1 29 30 9 10 8
  1 30 30 9 10 8
  1 31 30 9 10 8
  1 32 30 9 10 8
  1 33 30 9 10 8
  1 34 30 9 10 8
  1 35 30 9 10 8
  1 36 30 9 10 8
  1 37 30 9 10 8
  1 38 30 9 10 8
  1 39 30 9 10 8
  1 40 30 9 10 8
  1 41 30 9 10 8
  1 42 30 9 10 8
  1 43 30 9 10 8
  1 44 30 9 10 8
  1 45 30 9 10 8
  1 46 30 9 10 8
  1 47 30 9 10 8
  1 48 30 9 10 8
  1 49 30 9 10 8
  1 50 30 9 10 8
END period  1

