# File generated by Flopy version 3.6.0 on 02/21/2024 at 19:49:06.
BEGIN options
END options

BEGIN griddata
  icelltype
    CONSTANT  0
  k
    INTERNAL  FACTOR  1.0
         4.00000000       4.00000000       4.00000000       4.00000000       4.00000000       4.00000000       4.00000000       4.00000000       4.00000000       4.00000000       4.00000000       4.00000000       4.00000000       4.00000000       4.00000000       4.00000000       4.00000000       4.00000000       4.00000000       4.00000000       4.00000000       4.00000000       4.00000000       4.00000000       4.00000000       4.00000000       4.00000000       4.00000000       4.00000000       4.00000000
         4.00000000       4.00000000       4.00000000       4.00000000       4.00000000       4.00000000       4.00000000       4.00000000       4.00000000       4.00000000       4.00000000       4.00000000       4.00000000       4.00000000       4.00000000       4.00000000       4.00000000       4.00000000       4.00000000       4.00000000       4.00000000       4.00000000       4.00000000       4.00000000       4.00000000       4.00000000       4.00000000       4.00000000       4.00000000       4.00000000
         4.00000000       4.00000000       4.00000000       4.00000000       4.00000000       4.00000000       4.00000000       4.00000000       4.00000000       4.00000000       4.00000000       4.00000000       4.00000000       4.00000000       4.00000000       4.00000000       4.00000000       4.00000000       4.00000000       4.00000000       4.00000000       4.00000000       4.00000000       4.00000000       4.00000000       4.00000000       4.00000000       4.00000000       4.00000000       4.00000000
         4.00000000       4.00000000       4.00000000       4.00000000       4.00000000       4.00000000       4.00000000       4.00000000       4.00000000       4.00000000       4.00000000       4.00000000       4.00000000       4.00000000       4.00000000       4.00000000       4.00000000       4.00000000       4.00000000       4.00000000       4.00000000       4.00000000       4.00000000       4.00000000       4.00000000       4.00000000       4.00000000       4.00000000       4.00000000       4.00000000
         4.00000000       4.00000000       4.00000000       4.00000000       4.00000000       4.00000000       4.00000000       4.00000000       4.00000000       4.00000000       4.00000000       4.00000000       4.00000000       4.00000000       4.00000000       4.00000000       4.00000000       4.00000000       4.00000000       4.00000000       4.00000000       4.00000000       4.00000000       4.00000000       4.00000000       4.00000000       4.00000000       4.00000000       4.00000000       4.00000000
         4.00000000       4.00000000       4.00000000       4.00000000       4.00000000       4.00000000       4.00000000       4.00000000       4.00000000       4.00000000       4.00000000       4.00000000       4.00000000       4.00000000       4.00000000       4.00000000       4.00000000       4.00000000       4.00000000       4.00000000       4.00000000       4.00000000       4.00000000       4.00000000       4.00000000       4.00000000       4.00000000       4.00000000       4.00000000       4.00000000
         4.00000000       4.00000000       4.00000000       4.00000000       4.00000000       4.00000000       4.00000000       4.00000000       4.00000000       4.00000000       4.00000000       4.00000000       4.00000000       4.00000000       4.00000000       4.00000000       4.00000000       4.00000000       4.00000000       4.00000000       4.00000000       4.00000000       4.00000000       4.00000000       4.00000000       4.00000000       4.00000000       4.00000000       4.00000000       4.00000000
         4.00000000       4.00000000       4.00000000       4.00000000       4.00000000       4.00000000       4.00000000       4.00000000       4.00000000       4.00000000       4.00000000       4.00000000       4.00000000       4.00000000       4.00000000       4.00000000       4.00000000       4.00000000       4.00000000       4.00000000       4.00000000       4.00000000       4.00000000       4.00000000       4.00000000       4.00000000       4.00000000       4.00000000       4.00000000       4.00000000
         4.00000000       4.00000000       4.00000000       4.00000000       4.00000000       4.00000000       4.00000000       4.00000000       4.00000000       4.00000000       4.00000000       4.00000000       4.00000000       4.00000000       4.00000000       4.00000000       4.00000000       4.00000000       4.00000000       4.00000000       4.00000000       4.00000000       4.00000000       4.00000000       4.00000000       4.00000000       4.00000000       4.00000000       4.00000000       4.00000000
         4.00000000       4.00000000       4.00000000       4.00000000       4.00000000       4.00000000       4.00000000       4.00000000       4.00000000       4.00000000       4.00000000       4.00000000       4.00000000       4.00000000       4.00000000       4.00000000       4.00000000       4.00000000       4.00000000       4.00000000       4.00000000       4.00000000       4.00000000       4.00000000       4.00000000       4.00000000       4.00000000       4.00000000       4.00000000       4.00000000
         4.00000000       4.00000000       4.00000000       4.00000000       4.00000000       4.00000000       4.00000000       4.00000000       4.00000000       4.00000000       4.00000000       4.00000000       4.00000000       4.00000000       4.00000000       4.00000000       4.00000000       4.00000000       4.00000000       4.00000000       4.00000000       4.00000000       4.00000000       4.00000000       4.00000000       4.00000000       4.00000000       4.00000000       4.00000000       4.00000000
         4.00000000       4.00000000       4.00000000       4.00000000       4.00000000       4.00000000       4.00000000       4.00000000       4.00000000       4.00000000       4.00000000       4.00000000       4.00000000       4.00000000       4.00000000       4.00000000       4.00000000       4.00000000       4.00000000       4.00000000       4.00000000       4.00000000       4.00000000       4.00000000       4.00000000       4.00000000       4.00000000       4.00000000       4.00000000       4.00000000
         4.00000000       4.00000000       4.00000000       4.00000000       4.00000000       4.00000000       4.00000000       4.00000000       4.00000000       4.00000000       4.00000000       4.00000000       4.00000000       4.00000000       4.00000000       4.00000000       4.00000000       4.00000000       4.00000000       4.00000000       4.00000000       4.00000000       4.00000000       4.00000000       4.00000000       4.00000000       4.00000000       4.00000000       4.00000000       4.00000000
         4.00000000       4.00000000       4.00000000       4.00000000       4.00000000       4.00000000       4.00000000       4.00000000       4.00000000       4.00000000       4.00000000       4.00000000       4.00000000       4.00000000       4.00000000       4.00000000       4.00000000       4.00000000       4.00000000       4.00000000       4.00000000       4.00000000       4.00000000       4.00000000       4.00000000       4.00000000       4.00000000       4.00000000       4.00000000       4.00000000
         4.00000000       4.00000000       4.00000000       4.00000000       4.00000000       4.00000000       4.00000000       4.00000000       4.00000000       4.00000000       4.00000000       4.00000000       4.00000000       4.00000000       4.00000000       4.00000000       4.00000000       4.00000000       4.00000000       4.00000000       4.00000000       4.00000000       4.00000000       4.00000000       4.00000000       4.00000000       4.00000000       4.00000000       4.00000000       4.00000000
         4.00000000       4.00000000       4.00000000       4.00000000       4.00000000       4.00000000       4.00000000       4.00000000       4.00000000       4.00000000       4.00000000       4.00000000       4.00000000       4.00000000       4.00000000       4.00000000       4.00000000       4.00000000       4.00000000       4.00000000       4.00000000       4.00000000       4.00000000       4.00000000       4.00000000       4.00000000       4.00000000       4.00000000       4.00000000       4.00000000
         4.00000000       4.00000000       4.00000000       4.00000000       4.00000000       4.00000000       4.00000000       4.00000000       4.00000000       4.00000000       4.00000000       4.00000000       4.00000000       4.00000000       4.00000000       4.00000000       4.00000000       4.00000000       4.00000000       4.00000000       4.00000000       4.00000000       4.00000000       4.00000000       4.00000000       4.00000000       4.00000000       4.00000000       4.00000000       4.00000000
         4.00000000       4.00000000       4.00000000       4.00000000       4.00000000       4.00000000       4.00000000       4.00000000       4.00000000       4.00000000       4.00000000       4.00000000       4.00000000       4.00000000       4.00000000       4.00000000       4.00000000       4.00000000       4.00000000       4.00000000       4.00000000       4.00000000       4.00000000       4.00000000       4.00000000       4.00000000       4.00000000       4.00000000       4.00000000       4.00000000
         4.00000000       4.00000000       4.00000000       4.00000000       4.00000000       4.00000000       4.00000000       4.00000000       4.00000000       4.00000000       4.00000000       4.00000000       4.00000000       4.00000000       4.00000000       4.00000000       4.00000000       4.00000000       4.00000000       4.00000000       4.00000000       4.00000000       4.00000000       4.00000000       4.00000000       4.00000000       4.00000000       4.00000000       4.00000000       4.00000000
         4.00000000       4.00000000       4.00000000       4.00000000       4.00000000       4.00000000       4.00000000       4.00000000       4.00000000       4.00000000       4.00000000       4.00000000       4.00000000       4.00000000       4.00000000       4.00000000       4.00000000       4.00000000       4.00000000       4.00000000       4.00000000       4.00000000       4.00000000       4.00000000       4.00000000       4.00000000       4.00000000       4.00000000       4.00000000       4.00000000
         4.00000000       4.00000000       4.00000000       4.00000000       4.00000000       4.00000000       4.00000000       4.00000000       4.00000000       4.00000000       4.00000000       4.00000000       4.00000000       4.00000000       4.00000000       4.00000000       4.00000000       4.00000000       4.00000000       4.00000000       4.00000000       4.00000000       4.00000000       4.00000000       4.00000000       4.00000000       4.00000000       4.00000000       4.00000000       4.00000000
         4.00000000       4.00000000       4.00000000       4.00000000       4.00000000       4.00000000       4.00000000       4.00000000       4.00000000       4.00000000       4.00000000       4.00000000       4.00000000       4.00000000       4.00000000       4.00000000       4.00000000       4.00000000       4.00000000       4.00000000       4.00000000       4.00000000       4.00000000       4.00000000       4.00000000       4.00000000       4.00000000       4.00000000       4.00000000       4.00000000
         4.00000000       4.00000000       4.00000000       4.00000000       4.00000000       4.00000000       4.00000000       4.00000000       4.00000000       4.00000000       4.00000000       4.00000000       4.00000000       4.00000000       4.00000000       4.00000000       4.00000000       4.00000000       4.00000000       4.00000000       4.00000000       4.00000000       4.00000000       4.00000000       4.00000000       4.00000000       4.00000000       4.00000000       4.00000000       4.00000000
         4.00000000       4.00000000       4.00000000       4.00000000       4.00000000       4.00000000       4.00000000       4.00000000       4.00000000       4.00000000       4.00000000       4.00000000       4.00000000       4.00000000       4.00000000       4.00000000       4.00000000       4.00000000       4.00000000       4.00000000       4.00000000       4.00000000       4.00000000       4.00000000       4.00000000       4.00000000       4.00000000       4.00000000       4.00000000       4.00000000
         4.00000000       4.00000000       4.00000000       4.00000000       4.00000000       4.00000000       4.00000000       4.00000000       4.00000000       4.00000000       4.00000000       4.00000000       4.00000000       4.00000000       4.00000000       4.00000000       4.00000000       4.00000000       4.00000000       4.00000000       4.00000000       4.00000000       4.00000000       4.00000000       4.00000000       4.00000000       4.00000000       4.00000000       4.00000000       4.00000000
         1.00000000       1.00000000       1.00000000       1.00000000       1.00000000       1.00000000       1.00000000       1.00000000       1.00000000       1.00000000       1.00000000       1.00000000       1.00000000       1.00000000       1.00000000       1.00000000       1.00000000       1.00000000       1.00000000       1.00000000       1.00000000       1.00000000       1.00000000       1.00000000       1.00000000       1.00000000       1.00000000       1.00000000       1.00000000       1.00000000
         1.00000000       1.00000000       1.00000000       1.00000000       1.00000000       1.00000000       1.00000000       1.00000000       1.00000000       1.00000000       1.00000000       1.00000000       1.00000000       1.00000000       1.00000000       1.00000000       1.00000000       1.00000000       1.00000000       1.00000000       1.00000000       1.00000000       1.00000000       1.00000000       1.00000000       1.00000000       1.00000000       1.00000000       1.00000000       1.00000000
         1.00000000       1.00000000       1.00000000       1.00000000       1.00000000       1.00000000       1.00000000       1.00000000       1.00000000       1.00000000       1.00000000       1.00000000       1.00000000       1.00000000       1.00000000       1.00000000       1.00000000       1.00000000       1.00000000       1.00000000       1.00000000       1.00000000       1.00000000       1.00000000       1.00000000       1.00000000       1.00000000       1.00000000       1.00000000       1.00000000
         1.00000000       1.00000000       1.00000000       1.00000000       1.00000000       1.00000000       1.00000000       1.00000000       1.00000000       1.00000000       1.00000000       1.00000000       1.00000000       1.00000000       1.00000000       1.00000000       1.00000000       1.00000000       1.00000000       1.00000000       1.00000000       1.00000000       1.00000000       1.00000000       1.00000000       1.00000000       1.00000000       1.00000000       1.00000000       1.00000000
         1.00000000       1.00000000       1.00000000       1.00000000       1.00000000       1.00000000       1.00000000       1.00000000       1.00000000       1.00000000       1.00000000       1.00000000       1.00000000       1.00000000       1.00000000       1.00000000       1.00000000       1.00000000       1.00000000       1.00000000       1.00000000       1.00000000       1.00000000       1.00000000       1.00000000       1.00000000       1.00000000       1.00000000       1.00000000       1.00000000
         1.00000000       1.00000000       1.00000000       1.00000000       1.00000000       1.00000000       1.00000000       1.00000000       1.00000000       1.00000000       1.00000000       1.00000000       1.00000000       1.00000000       1.00000000       1.00000000       1.00000000       1.00000000       1.00000000       1.00000000       1.00000000       1.00000000       1.00000000       1.00000000       1.00000000       1.00000000       1.00000000       1.00000000       1.00000000       1.00000000
         1.00000000       1.00000000       1.00000000       1.00000000       1.00000000       1.00000000       1.00000000       1.00000000       1.00000000       1.00000000       1.00000000       1.00000000       1.00000000       1.00000000       1.00000000       1.00000000       1.00000000       1.00000000       1.00000000       1.00000000       1.00000000       1.00000000       1.00000000       1.00000000       1.00000000       1.00000000       1.00000000       1.00000000       1.00000000       1.00000000
         1.00000000       1.00000000       1.00000000       1.00000000       1.00000000       1.00000000       1.00000000       1.00000000       1.00000000       1.00000000       1.00000000       1.00000000       1.00000000       1.00000000       1.00000000       1.00000000       1.00000000       1.00000000       1.00000000       1.00000000       1.00000000       1.00000000       1.00000000       1.00000000       1.00000000       1.00000000       1.00000000       1.00000000       1.00000000       1.00000000
         1.00000000       1.00000000       1.00000000       1.00000000       1.00000000       1.00000000       1.00000000       1.00000000       1.00000000       1.00000000       1.00000000       1.00000000       1.00000000       1.00000000       1.00000000       1.00000000       1.00000000       1.00000000       1.00000000       1.00000000       1.00000000       1.00000000       1.00000000       1.00000000       1.00000000       1.00000000       1.00000000       1.00000000       1.00000000       1.00000000
         1.00000000       1.00000000       1.00000000       1.00000000       1.00000000       1.00000000       1.00000000       1.00000000       1.00000000       1.00000000       1.00000000       1.00000000       1.00000000       1.00000000       1.00000000       1.00000000       1.00000000       1.00000000       1.00000000       1.00000000       1.00000000       1.00000000       1.00000000       1.00000000       1.00000000       1.00000000       1.00000000       1.00000000       1.00000000       1.00000000
         1.00000000       1.00000000       1.00000000       1.00000000       1.00000000       1.00000000       1.00000000       1.00000000       1.00000000       1.00000000       1.00000000       1.00000000       1.00000000       1.00000000       1.00000000       1.00000000       1.00000000       1.00000000       1.00000000       1.00000000       1.00000000       1.00000000       1.00000000       1.00000000       1.00000000       1.00000000       1.00000000       1.00000000       1.00000000       1.00000000
         1.00000000       1.00000000       1.00000000       1.00000000       1.00000000       1.00000000       1.00000000       1.00000000       1.00000000       1.00000000       1.00000000       1.00000000       1.00000000       1.00000000       1.00000000       1.00000000       1.00000000       1.00000000       1.00000000       1.00000000       1.00000000       1.00000000       1.00000000       1.00000000       1.00000000       1.00000000       1.00000000       1.00000000       1.00000000       1.00000000
         1.00000000       1.00000000       1.00000000       1.00000000       1.00000000       1.00000000       1.00000000       1.00000000       1.00000000       1.00000000       1.00000000       1.00000000       1.00000000       1.00000000       1.00000000       1.00000000       1.00000000       1.00000000       1.00000000       1.00000000       1.00000000       1.00000000       1.00000000       1.00000000       1.00000000       1.00000000       1.00000000       1.00000000       1.00000000       1.00000000
         1.00000000       1.00000000       1.00000000       1.00000000       1.00000000       1.00000000       1.00000000       1.00000000       1.00000000       1.00000000       1.00000000       1.00000000       1.00000000       1.00000000       1.00000000       1.00000000       1.00000000       1.00000000       1.00000000       1.00000000       1.00000000       1.00000000       1.00000000       1.00000000       1.00000000       1.00000000       1.00000000       1.00000000       1.00000000       1.00000000
         1.00000000       1.00000000       1.00000000       1.00000000       1.00000000       1.00000000       1.00000000       1.00000000       1.00000000       1.00000000       1.00000000       1.00000000       1.00000000       1.00000000       1.00000000       1.00000000       1.00000000       1.00000000       1.00000000       1.00000000       1.00000000       1.00000000       1.00000000       1.00000000       1.00000000       1.00000000       1.00000000       1.00000000       1.00000000       1.00000000
         1.00000000       1.00000000       1.00000000       1.00000000       1.00000000       1.00000000       1.00000000       1.00000000       1.00000000       1.00000000       1.00000000       1.00000000       1.00000000       1.00000000       1.00000000       1.00000000       1.00000000       1.00000000       1.00000000       1.00000000       1.00000000       1.00000000       1.00000000       1.00000000       1.00000000       1.00000000       1.00000000       1.00000000       1.00000000       1.00000000
         1.00000000       1.00000000       1.00000000       1.00000000       1.00000000       1.00000000       1.00000000       1.00000000       1.00000000       1.00000000       1.00000000       1.00000000       1.00000000       1.00000000       1.00000000       1.00000000       1.00000000       1.00000000       1.00000000       1.00000000       1.00000000       1.00000000       1.00000000       1.00000000       1.00000000       1.00000000       1.00000000       1.00000000       1.00000000       1.00000000
         1.00000000       1.00000000       1.00000000       1.00000000       1.00000000       1.00000000       1.00000000       1.00000000       1.00000000       1.00000000       1.00000000       1.00000000       1.00000000       1.00000000       1.00000000       1.00000000       1.00000000       1.00000000       1.00000000       1.00000000       1.00000000       1.00000000       1.00000000       1.00000000       1.00000000       1.00000000       1.00000000       1.00000000       1.00000000       1.00000000
         1.00000000       1.00000000       1.00000000       1.00000000       1.00000000       1.00000000       1.00000000       1.00000000       1.00000000       1.00000000       1.00000000       1.00000000       1.00000000       1.00000000       1.00000000       1.00000000       1.00000000       1.00000000       1.00000000       1.00000000       1.00000000       1.00000000       1.00000000       1.00000000       1.00000000       1.00000000       1.00000000       1.00000000       1.00000000       1.00000000
         1.00000000       1.00000000       1.00000000       1.00000000       1.00000000       1.00000000       1.00000000       1.00000000       1.00000000       1.00000000       1.00000000       1.00000000       1.00000000       1.00000000       1.00000000       1.00000000       1.00000000       1.00000000       1.00000000       1.00000000       1.00000000       1.00000000       1.00000000       1.00000000       1.00000000       1.00000000       1.00000000       1.00000000       1.00000000       1.00000000
         1.00000000       1.00000000       1.00000000       1.00000000       1.00000000       1.00000000       1.00000000       1.00000000       1.00000000       1.00000000       1.00000000       1.00000000       1.00000000       1.00000000       1.00000000       1.00000000       1.00000000       1.00000000       1.00000000       1.00000000       1.00000000       1.00000000       1.00000000       1.00000000       1.00000000       1.00000000       1.00000000       1.00000000       1.00000000       1.00000000
         1.00000000       1.00000000       1.00000000       1.00000000       1.00000000       1.00000000       1.00000000       1.00000000       1.00000000       1.00000000       1.00000000       1.00000000       1.00000000       1.00000000       1.00000000       1.00000000       1.00000000       1.00000000       1.00000000       1.00000000       1.00000000       1.00000000       1.00000000       1.00000000       1.00000000       1.00000000       1.00000000       1.00000000       1.00000000       1.00000000
         1.00000000       1.00000000       1.00000000       1.00000000       1.00000000       1.00000000       1.00000000       1.00000000       1.00000000       1.00000000       1.00000000       1.00000000       1.00000000       1.00000000       1.00000000       1.00000000       1.00000000       1.00000000       1.00000000       1.00000000       1.00000000       1.00000000       1.00000000       1.00000000       1.00000000       1.00000000       1.00000000       1.00000000       1.00000000       1.00000000
         1.00000000       1.00000000       1.00000000       1.00000000       1.00000000       1.00000000       1.00000000       1.00000000       1.00000000       1.00000000       1.00000000       1.00000000       1.00000000       1.00000000       1.00000000       1.00000000       1.00000000       1.00000000       1.00000000       1.00000000       1.00000000       1.00000000       1.00000000       1.00000000       1.00000000       1.00000000       1.00000000       1.00000000       1.00000000       1.00000000
         1.00000000       1.00000000       1.00000000       1.00000000       1.00000000       1.00000000       1.00000000       1.00000000       1.00000000       1.00000000       1.00000000       1.00000000       1.00000000       1.00000000       1.00000000       1.00000000       1.00000000       1.00000000       1.00000000       1.00000000       1.00000000       1.00000000       1.00000000       1.00000000       1.00000000       1.00000000       1.00000000       1.00000000       1.00000000       1.00000000
END griddata

